Version 4
SHEET 1 880 712
WIRE 224 -96 224 -288
WIRE 256 -96 224 -96
WIRE 256 -48 256 -96
WIRE 256 -48 224 -48
WIRE 176 -16 -160 -16
WIRE -224 128 -592 128
WIRE -160 128 -160 -16
WIRE -160 128 -224 128
WIRE 224 128 224 0
WIRE 560 128 224 128
WIRE -592 192 -592 128
WIRE 224 192 224 128
WIRE 256 240 224 240
WIRE -160 272 -160 128
WIRE 176 272 -160 272
WIRE 256 288 256 240
WIRE 256 288 224 288
WIRE -1104 336 -1104 256
WIRE -592 336 -592 272
WIRE 224 496 224 288
WIRE -1104 512 -1104 416
FLAG 224 496 0
FLAG 224 -288 VDD
FLAG 560 128 VOUT
FLAG -224 128 VIN
FLAG -1104 512 0
FLAG -592 336 0
FLAG -1104 256 VDD
SYMBOL nmos4 176 192 R0
SYMATTR InstName M1
SYMATTR Value CMOSN
SYMATTR Value2 l={Ln} w={Wn} ad={Ldiffn*Wn} as={Ldiffn*Wn} pd={2*Ldiffn+Wn} ps={2*Ldiffn+Wn}
SYMBOL pmos4 176 -96 R0
SYMATTR InstName M2
SYMATTR Value CMOSP
SYMATTR Value2 l={Lp} w={Wp} ad={Ldiffp*Wp} as={Ldiffp*Wp} pd={2*Ldiffp+Wp} ps={2*Ldiffp+Wp}
SYMBOL voltage -592 176 R0
WINDOW 3 -57 132 Left 2
WINDOW 123 0 0 Left 2
WINDOW 39 0 0 Left 2
SYMATTR Value PULSE(0 1.8 50p 1p 1p 100p 200p)
SYMATTR InstName V1
SYMBOL voltage -1104 320 R0
WINDOW 123 0 0 Left 2
WINDOW 39 0 0 Left 2
SYMATTR InstName V2
SYMATTR Value 1.8
TEXT -1240 -352 Left 2 !.include ../lib/T180nm.lib
TEXT -1240 -456 Left 2 !.tran 0 250p 0 .1p
TEXT -1240 -424 Left 2 !.param Lp=180n Wp=001u Ldiffp=0.48u
TEXT -1240 -392 Left 2 !.param Ln=180n Wn=500n Ldiffn=0.48u
