Version 4
SHEET 1 880 1476
WIRE 224 32 224 -288
WIRE 560 80 320 80
WIRE -192 128 -192 48
WIRE 560 208 320 208
WIRE -192 304 -192 208
WIRE 224 496 224 256
FLAG 224 496 0
FLAG 224 -288 VDD
FLAG -192 304 0
FLAG -192 48 VDD
FLAG 560 208 Vbiasp
FLAG 560 80 Vbiasn
SYMBOL voltage -192 112 R0
WINDOW 123 0 0 Left 2
WINDOW 39 0 0 Left 2
SYMATTR InstName V2
SYMATTR Value 1.8
SYMBOL bias 224 144 R0
WINDOW 39 -18 27 Left 2
SYMATTR InstName X1
SYMATTR SpiceLine R={Rb}
TEXT -226 520 Left 2 !.tran 0 1 0 .1
TEXT -224 560 Left 2 !.step param Rb 1k 16k 3k
