Version 4
SHEET 1 2160 2372
WIRE -912 -320 -1056 -320
WIRE -656 -320 -848 -320
WIRE -1552 -256 -1552 -384
WIRE -896 -80 -896 -128
WIRE -1552 -32 -1552 -176
WIRE -1056 -32 -1056 -320
WIRE -1056 -32 -1552 -32
WIRE -960 -32 -1056 -32
WIRE 592 -32 592 -256
WIRE 656 0 656 -176
WIRE -656 16 -656 -320
WIRE -656 16 -752 16
WIRE -48 16 -656 16
WIRE 528 16 -48 16
WIRE -960 64 -1072 64
WIRE 1200 64 736 64
WIRE 1216 64 1200 64
WIRE 528 112 432 112
WIRE 1216 192 1216 64
WIRE -832 208 -832 112
WIRE -896 224 -896 144
WIRE 656 336 656 160
WIRE 592 496 592 192
WIRE 1216 496 1216 256
WIRE 592 896 592 672
WIRE 656 928 656 752
WIRE -32 944 -528 944
WIRE 528 944 -32 944
WIRE 1200 992 736 992
WIRE 1216 992 1200 992
WIRE -528 1040 -528 944
WIRE 528 1040 432 1040
WIRE -1424 1056 -1424 976
WIRE -1296 1056 -1296 976
WIRE -1168 1056 -1168 976
WIRE 1216 1120 1216 992
WIRE -528 1216 -528 1120
WIRE -1424 1232 -1424 1136
WIRE -1296 1232 -1296 1136
WIRE -1168 1232 -1168 1136
WIRE 656 1264 656 1088
WIRE -528 1424 -528 1296
WIRE 592 1424 592 1120
WIRE 1216 1424 1216 1184
WIRE 592 1824 592 1600
WIRE 656 1856 656 1680
WIRE -80 1872 -528 1872
WIRE 528 1872 -80 1872
WIRE 1200 1920 736 1920
WIRE 1216 1920 1200 1920
WIRE -528 1968 -528 1872
WIRE 528 1968 416 1968
WIRE 1216 2048 1216 1920
WIRE -528 2144 -528 2048
WIRE 656 2192 656 2016
WIRE -528 2352 -528 2224
WIRE 592 2352 592 2048
WIRE 1216 2352 1216 2112
FLAG -1424 1232 0
FLAG -1424 976 VDD
FLAG -1296 1232 0
FLAG -1296 976 Vref2
FLAG 592 496 0
FLAG -1168 1232 0
FLAG -1168 976 Vref1
FLAG 1200 64 VoutReal
FLAG 592 -256 VDD
FLAG 656 336 Vref2
FLAG 1216 496 0
FLAG 656 -176 Vref1
FLAG -1552 -384 Vdd
FLAG -896 -128 VDD
FLAG -1072 64 Vref1
FLAG -832 208 Vref2
FLAG -528 1424 0
FLAG 592 1424 0
FLAG 1200 992 Vout1.3
FLAG 592 672 VDD
FLAG 656 1264 Vref2
FLAG 1216 1424 0
FLAG 656 752 Vref1
FLAG -896 224 0
FLAG 592 2352 0
FLAG 1200 1920 Vout1.6
FLAG 592 1600 VDD
FLAG 656 2192 Vref2
FLAG 1216 2352 0
FLAG 656 1680 Vref1
FLAG -528 2352 0
FLAG 416 1968 Vref2
IOPIN 416 1968 In
FLAG 432 1040 Vref2
IOPIN 432 1040 In
FLAG 432 112 Vref2
IOPIN 432 112 In
FLAG -48 16 V+Real
FLAG -32 944 V+1.3
FLAG -80 1872 V+1.6
SYMBOL voltage -1424 1040 R0
WINDOW 123 0 0 Left 2
WINDOW 39 0 0 Left 2
SYMATTR InstName V2
SYMATTR Value 1.8
SYMBOL voltage -1296 1040 R0
WINDOW 123 0 0 Left 2
WINDOW 39 0 0 Left 2
SYMATTR InstName V1
SYMATTR Value 0.6
SYMBOL voltage -1168 1040 R0
WINDOW 123 0 0 Left 2
WINDOW 39 0 0 Left 2
SYMATTR InstName V3
SYMATTR Value 1.3
SYMBOL comparator 592 64 R0
SYMATTR InstName X4
SYMBOL cap 1200 192 R0
SYMATTR InstName C1
SYMATTR Value 1n
SYMBOL opamp -896 16 R0
SYMATTR InstName X1
SYMBOL cap -848 -336 R90
WINDOW 0 0 32 VBottom 2
WINDOW 3 32 32 VTop 2
SYMATTR InstName C2
SYMATTR Value 3.43p
SYMBOL current -1552 -256 R0
WINDOW 123 0 0 Left 0
WINDOW 39 0 0 Left 0
SYMATTR InstName I1
SYMATTR Value PULSE(0 20n 20u 0 0 1 1)
SYMBOL voltage -528 1200 R0
WINDOW 123 0 0 Left 0
WINDOW 39 0 0 Left 0
SYMATTR InstName V6
SYMATTR Value 1.3
SYMBOL comparator 592 992 R0
SYMATTR InstName X2
SYMBOL cap 1200 1120 R0
SYMATTR InstName C3
SYMATTR Value 1n
SYMBOL voltage -528 1024 R0
WINDOW 123 0 0 Left 0
WINDOW 39 0 0 Left 0
SYMATTR InstName V7
SYMATTR Value PULSE(0 -1.3 20u 223u 0 10u 150u)
SYMBOL comparator 592 1920 R0
SYMATTR InstName X3
SYMBOL cap 1200 2048 R0
SYMATTR InstName C4
SYMATTR Value 1n
SYMBOL voltage -528 2128 R0
WINDOW 123 0 0 Left 0
WINDOW 39 0 0 Left 0
SYMATTR InstName V8
SYMATTR Value 1.6
SYMBOL voltage -528 1952 R0
WINDOW 123 0 0 Left 0
WINDOW 39 0 0 Left 0
SYMATTR InstName V9
SYMATTR Value PULSE(0 -1.6 20u 223u 0 10u 150u)
TEXT -1456 1312 Left 2 !.tran 0 240u 20u .1u startup
