Version 4
SHEET 1 2160 2372
WIRE 592 896 592 672
WIRE 656 928 656 752
WIRE -32 944 -528 944
WIRE 528 944 -32 944
WIRE 1200 992 736 992
WIRE 1216 992 1200 992
WIRE -528 1040 -528 944
WIRE 32 1040 16 1040
WIRE 528 1040 32 1040
WIRE -1424 1056 -1424 976
WIRE -1296 1056 -1296 976
WIRE -1168 1056 -1168 976
WIRE 16 1120 16 1040
WIRE 1216 1120 1216 992
WIRE -1424 1232 -1424 1136
WIRE -1296 1232 -1296 1136
WIRE -1168 1232 -1168 1136
WIRE 656 1264 656 1088
WIRE 16 1296 16 1200
WIRE 592 1424 592 1120
WIRE 1216 1424 1216 1184
WIRE 16 1440 16 1376
FLAG -1424 1232 0
FLAG -1424 976 VDD
FLAG -1296 1232 0
FLAG -1296 976 Vref2
FLAG -1168 1232 0
FLAG -1168 976 Vref1
FLAG 16 1440 0
FLAG 592 1424 0
FLAG 1200 992 Vout1.3
FLAG 592 672 VDD
FLAG 656 1264 Vref2
FLAG 1216 1424 0
FLAG 656 752 Vref1
FLAG -528 1040 Vref1
IOPIN -528 1040 In
FLAG -32 944 V-
FLAG 32 1040 V+
SYMBOL voltage -1424 1040 R0
WINDOW 123 0 0 Left 2
WINDOW 39 0 0 Left 2
SYMATTR InstName V2
SYMATTR Value 1.8
SYMBOL voltage -1296 1040 R0
WINDOW 123 0 0 Left 2
WINDOW 39 0 0 Left 2
SYMATTR InstName V1
SYMATTR Value 0.6
SYMBOL voltage -1168 1040 R0
WINDOW 123 0 0 Left 2
WINDOW 39 0 0 Left 2
SYMATTR InstName V3
SYMATTR Value 1.3
SYMBOL voltage 16 1280 R0
WINDOW 123 0 0 Left 0
WINDOW 39 0 0 Left 0
SYMATTR InstName V6
SYMATTR Value 1
SYMBOL comparator 592 992 R0
SYMATTR InstName X2
SYMBOL cap 1200 1120 R0
SYMATTR InstName C3
SYMATTR Value 1n
SYMBOL voltage 16 1104 R0
WINDOW 123 0 0 Left 0
WINDOW 39 0 0 Left 0
SYMATTR InstName V7
SYMATTR Value PULSE(0 0.6 555n .0001f .0001f 50n 1)
TEXT -1456 1312 Left 2 !.tran 0 660n 500n .001n
