Version 4
SHEET 1 880 712
WIRE 224 -96 224 -304
WIRE 224 -96 208 -96
WIRE 208 80 208 -96
WIRE 176 96 48 96
WIRE 576 112 240 112
WIRE 176 128 48 128
WIRE 208 288 208 144
WIRE 224 288 208 288
WIRE 224 544 224 288
FLAG 576 112 Vout
IOPIN 576 112 Out
FLAG 224 -304 Vdd
IOPIN 224 -304 In
FLAG 224 544 Vss
IOPIN 224 544 In
FLAG 48 96 -
IOPIN 48 96 In
FLAG 48 128 +
IOPIN 48 128 In
SYMBOL Opamps\\OP292 208 48 R0
SYMATTR InstName U1
