Version 4
SHEET 1 880 1476
WIRE 224 32 224 -288
WIRE 160 80 -576 80
WIRE 560 128 368 128
WIRE 160 176 -320 176
WIRE -320 320 -320 176
WIRE -1104 336 -1104 256
WIRE -576 416 -576 80
WIRE 224 496 224 256
WIRE -1104 512 -1104 416
WIRE -576 752 -576 496
WIRE -320 752 -320 400
FLAG 224 496 0
FLAG 224 -288 VDD
FLAG -1104 512 0
FLAG -576 752 0
FLAG -1104 256 VDD
FLAG -320 752 0
FLAG 560 128 Vout
FLAG -576 80 -
FLAG -320 176 +
SYMBOL voltage -576 400 R0
WINDOW 3 -57 132 Left 2
WINDOW 123 0 0 Left 2
WINDOW 39 0 0 Left 2
SYMATTR Value PULSE(0 1.8 50p 1p 1p 100u 200u)
SYMATTR InstName V1
SYMBOL voltage -1104 320 R0
WINDOW 123 0 0 Left 2
WINDOW 39 0 0 Left 2
SYMATTR InstName V2
SYMATTR Value 1.8
SYMBOL comparator 224 128 R0
SYMATTR InstName X1
SYMBOL voltage -320 304 R0
WINDOW 3 -57 132 Left 2
WINDOW 123 0 0 Left 2
WINDOW 39 0 0 Left 2
SYMATTR Value 1
SYMATTR InstName V3
TEXT -1240 -456 Left 2 !.tran 0 250u 0 .1u
