Version 4
SHEET 1 1528 1476
WIRE 592 -32 592 -256
WIRE 656 0 656 -144
WIRE 528 16 -528 16
WIRE 1200 64 736 64
WIRE 1216 64 1200 64
WIRE -528 112 -528 16
WIRE 528 112 -192 112
WIRE 1216 192 1216 64
WIRE -528 288 -528 192
WIRE -192 288 -192 112
WIRE -1104 336 -1104 256
WIRE -976 336 -976 256
WIRE -848 336 -848 256
WIRE 656 336 656 160
WIRE -528 496 -528 368
WIRE -192 496 -192 368
WIRE 592 496 592 192
WIRE 1216 496 1216 256
WIRE -1104 512 -1104 416
WIRE -976 512 -976 416
WIRE -848 512 -848 416
FLAG -1104 512 0
FLAG -1104 256 VDD
FLAG -976 512 0
FLAG -976 256 Vbiasn
FLAG -192 496 0
FLAG -528 496 0
FLAG 592 496 0
FLAG -848 512 0
FLAG -848 256 Vbiasp
FLAG 1200 64 Vout
FLAG 592 -256 VDD
FLAG 656 -144 Vbiasp
FLAG 656 336 Vbiasn
FLAG 1216 496 0
SYMBOL voltage -1104 320 R0
WINDOW 123 0 0 Left 2
WINDOW 39 0 0 Left 2
SYMATTR InstName V2
SYMATTR Value 1.8
SYMBOL voltage -976 320 R0
WINDOW 123 0 0 Left 2
WINDOW 39 0 0 Left 2
SYMATTR InstName V1
SYMATTR Value 0.6
SYMBOL voltage -192 272 R0
WINDOW 123 0 0 Left 0
WINDOW 39 0 0 Left 0
SYMATTR InstName V-
SYMATTR Value 0.6
SYMBOL voltage -528 272 R0
WINDOW 123 0 0 Left 0
WINDOW 39 0 0 Left 0
SYMATTR InstName V+
SYMATTR Value 1.3
SYMBOL voltage -848 320 R0
WINDOW 123 0 0 Left 2
WINDOW 39 0 0 Left 2
SYMATTR InstName V3
SYMATTR Value 1.3
SYMBOL comparator 592 64 R0
SYMATTR InstName X4
SYMBOL cap 1200 192 R0
SYMATTR InstName C1
SYMATTR Value 1n
SYMBOL voltage -528 96 R0
WINDOW 123 0 0 Left 0
WINDOW 39 0 0 Left 0
SYMATTR InstName V4
SYMATTR Value PULSE(0 -1.3 0 223u 0 10u 150u)
TEXT -1138 536 Left 2 !.tran 0 500u 0 .1u
