Version 4
SHEET 1 2160 1476
WIRE 1840 -448 1840 -528
WIRE 1968 -448 1968 -528
WIRE 2096 -448 2096 -528
WIRE -912 -320 -1056 -320
WIRE -656 -320 -848 -320
WIRE 1840 -272 1840 -368
WIRE 1968 -272 1968 -368
WIRE 2096 -272 2096 -368
WIRE -1552 -256 -1552 -384
WIRE -896 -80 -896 -128
WIRE -1552 -32 -1552 -176
WIRE -1056 -32 -1056 -320
WIRE -1056 -32 -1552 -32
WIRE -960 -32 -1056 -32
WIRE 592 -32 592 -256
WIRE 656 0 656 -176
WIRE -656 16 -656 -320
WIRE -656 16 -752 16
WIRE 528 16 -656 16
WIRE -960 64 -1072 64
WIRE 1200 64 736 64
WIRE 1216 64 1200 64
WIRE 528 112 -192 112
WIRE 1216 192 1216 64
WIRE -832 208 -832 112
WIRE -896 224 -896 144
WIRE -192 288 -192 112
WIRE 656 336 656 160
WIRE -192 496 -192 368
WIRE 592 496 592 192
WIRE 1216 496 1216 256
WIRE 592 896 592 672
WIRE 656 928 656 752
WIRE 528 944 -528 944
WIRE 1200 992 736 992
WIRE 1216 992 1200 992
WIRE -528 1040 -528 944
WIRE 528 1040 -192 1040
WIRE 1216 1120 1216 992
WIRE -528 1216 -528 1120
WIRE -192 1216 -192 1040
WIRE 656 1264 656 1088
WIRE -528 1424 -528 1296
WIRE -192 1424 -192 1296
WIRE 592 1424 592 1120
WIRE 1216 1424 1216 1184
FLAG 1840 -272 0
FLAG 1840 -528 VDD
FLAG 1968 -272 0
FLAG 1968 -528 Vref2
FLAG -192 496 0
FLAG 592 496 0
FLAG 2096 -272 0
FLAG 2096 -528 Vref1
FLAG 1200 64 VoutTotal
FLAG 592 -256 VDD
FLAG 656 336 Vref2
FLAG 1216 496 0
FLAG 656 -176 Vref1
FLAG -1552 -384 Vdd
FLAG -896 -128 VDD
FLAG -1072 64 Vref1
FLAG -832 208 Vref2
FLAG -192 1424 0
FLAG -528 1424 0
FLAG 592 1424 0
FLAG 1200 992 VoutTB
FLAG 592 672 VDD
FLAG 656 1264 Vref2
FLAG 1216 1424 0
FLAG 656 752 Vref1
FLAG -896 224 0
SYMBOL voltage 1840 -464 R0
WINDOW 123 0 0 Left 2
WINDOW 39 0 0 Left 2
SYMATTR InstName V2
SYMATTR Value 1.8
SYMBOL voltage 1968 -464 R0
WINDOW 123 0 0 Left 2
WINDOW 39 0 0 Left 2
SYMATTR InstName V1
SYMATTR Value 0.6
SYMBOL voltage -192 272 R0
WINDOW 123 0 0 Left 0
WINDOW 39 0 0 Left 0
SYMATTR InstName V-
SYMATTR Value 0.6
SYMBOL voltage 2096 -464 R0
WINDOW 123 0 0 Left 2
WINDOW 39 0 0 Left 2
SYMATTR InstName V3
SYMATTR Value 1.3
SYMBOL comparator 592 64 R0
SYMATTR InstName X4
SYMBOL cap 1200 192 R0
SYMATTR InstName C1
SYMATTR Value 1n
SYMBOL opamp -896 16 R0
SYMATTR InstName X1
SYMBOL cap -848 -336 R90
WINDOW 0 0 32 VBottom 2
WINDOW 3 32 32 VTop 2
SYMATTR InstName C2
SYMATTR Value 3.43p
SYMBOL current -1552 -256 R0
WINDOW 123 0 0 Left 0
WINDOW 39 0 0 Left 0
SYMATTR InstName I1
SYMATTR Value PULSE(0 20n 40u 0 0 1 1)
SYMBOL voltage -192 1200 R0
WINDOW 123 0 0 Left 0
WINDOW 39 0 0 Left 0
SYMATTR InstName V5
SYMATTR Value 0.6
SYMBOL voltage -528 1200 R0
WINDOW 123 0 0 Left 0
WINDOW 39 0 0 Left 0
SYMATTR InstName V6
SYMATTR Value 1.3
SYMBOL comparator 592 992 R0
SYMATTR InstName X2
SYMBOL cap 1200 1120 R0
SYMATTR InstName C3
SYMATTR Value 1n
SYMBOL voltage -528 1024 R0
WINDOW 123 0 0 Left 0
WINDOW 39 0 0 Left 0
SYMATTR InstName V7
SYMATTR Value PULSE(0 -1.3 0 223u 0 10u 150u)
TEXT 1808 -192 Left 2 !.tran 0 300u 0 .1u startup
