Version 4
SHEET 1 3440 2340
WIRE -48 -736 -448 -736
WIRE 160 -736 160 -832
WIRE 160 -736 -48 -736
WIRE 592 -736 160 -736
WIRE 928 -736 592 -736
WIRE -448 -608 -448 -736
WIRE 592 -608 592 -736
WIRE -448 -560 -448 -592
WIRE 592 -560 592 -592
WIRE -336 -528 -400 -528
WIRE 544 -528 -336 -528
WIRE -48 -448 -48 -736
WIRE 928 -448 928 -736
WIRE -448 -400 -448 -512
WIRE -336 -400 -336 -528
WIRE -336 -400 -448 -400
WIRE -48 -400 -48 -432
WIRE 928 -400 928 -432
WIRE 96 -368 0 -368
WIRE 880 -368 96 -368
WIRE 1840 -352 1840 -544
WIRE 1840 -304 1840 -336
WIRE -48 -272 -48 -352
WIRE 96 -272 96 -368
WIRE 96 -272 -48 -272
WIRE 1792 -272 1664 -272
WIRE 1840 -208 1840 -256
WIRE 1840 -208 1680 -208
WIRE 2016 -208 1840 -208
WIRE -448 -192 -448 -400
WIRE -48 -192 -48 -272
WIRE -240 -144 -448 -144
WIRE -48 -144 -240 -144
WIRE 1680 -128 1680 -208
WIRE 2016 -128 2016 -208
WIRE -496 -112 -624 -112
WIRE 112 -112 0 -112
WIRE 1680 -80 1680 -112
WIRE 2016 -80 2016 -112
WIRE -240 -48 -240 -144
WIRE 928 -48 928 -352
WIRE 1632 -48 928 -48
WIRE 2144 -48 2064 -48
WIRE 2464 -48 2464 -240
WIRE 592 0 592 -512
WIRE 2144 0 2144 -48
WIRE 2144 0 592 0
WIRE 1680 16 1680 -32
WIRE 1824 16 1680 16
WIRE 2016 48 2016 -32
WIRE 2400 48 2016 48
WIRE 2736 48 2640 48
WIRE -448 80 -448 -96
WIRE -240 80 -448 80
WIRE -48 80 -48 -96
WIRE -48 80 -240 80
WIRE 1680 80 1680 16
WIRE 2016 80 2016 48
WIRE 1680 160 1680 128
WIRE 1824 160 1824 16
WIRE 1824 160 1728 160
WIRE 1968 160 1824 160
WIRE 2016 160 2016 128
WIRE 2464 272 2464 176
WIRE -240 336 -240 80
WIRE 320 336 160 336
WIRE 592 336 592 0
WIRE 592 336 320 336
WIRE 720 336 592 336
WIRE 928 336 928 -48
WIRE 928 336 752 336
WIRE 1168 336 928 336
WIRE 1312 336 1168 336
WIRE 1680 368 1680 176
WIRE 1840 368 1680 368
WIRE 2016 368 2016 176
WIRE 2016 368 1840 368
WIRE -288 416 -624 416
WIRE -240 416 -240 384
WIRE 320 432 320 336
WIRE 592 432 592 336
WIRE 928 432 928 336
WIRE 1168 432 1168 336
WIRE 720 464 720 336
WIRE 832 464 720 464
WIRE 1840 464 1840 368
WIRE 160 512 160 336
WIRE 272 512 160 512
WIRE 320 512 320 480
WIRE 592 512 592 480
WIRE 752 512 752 336
WIRE 752 512 640 512
WIRE 832 512 832 464
WIRE 880 512 832 512
WIRE 928 512 928 480
WIRE 1168 512 1168 480
WIRE 1312 512 1312 336
WIRE 1312 512 1216 512
WIRE -240 640 -240 432
WIRE 320 720 320 528
WIRE 592 720 592 528
WIRE 592 720 320 720
WIRE 656 720 592 720
WIRE 768 720 656 720
WIRE 928 720 928 528
WIRE 928 720 768 720
WIRE 1168 720 1168 528
WIRE 1168 720 928 720
WIRE 768 784 768 720
WIRE 656 864 656 720
WIRE 720 864 656 864
WIRE 768 864 768 832
WIRE 768 1152 768 880
FLAG 160 -832 Vdd
IOPIN 160 -832 In
FLAG -240 -48 Vss
IOPIN -240 -48 In
FLAG -624 -112 +
IOPIN -624 -112 In
FLAG 112 -112 -
IOPIN 112 -112 In
FLAG -240 640 Vss
IOPIN -240 640 In
FLAG -624 416 Vbiasn
IOPIN -624 416 In
FLAG 768 1152 Vss
IOPIN 768 1152 In
FLAG 1840 -544 Vdd
IOPIN 1840 -544 In
FLAG 1664 -272 Vbiasp
IOPIN 1664 -272 In
FLAG 1840 464 Vss
IOPIN 1840 464 In
FLAG 2464 -240 Vdd
IOPIN 2464 -240 In
FLAG 2464 272 Vss
IOPIN 2464 272 In
FLAG 2736 48 Vout
IOPIN 2736 48 Out
SYMBOL nmos4 -496 -192 R0
SYMATTR InstName M1
SYMATTR Value CMOSN
SYMATTR Value2 l={L1} w={W1} ad={Ldiffn*W1} as={Ldiffn*W1} pd={2*Ldiffn+W1} ps={2*Ldiffn+W1}
SYMBOL pmos4 0 -448 M0
SYMATTR InstName M2
SYMATTR Value CMOSP
SYMATTR Value2 l={L41} w={W41} ad={Ldiffp*W41} as={Ldiffp*W41} pd={2*Ldiffp+W41} ps={2*Ldiffp+W41}
SYMBOL nmos4 0 -192 M0
SYMATTR InstName M3
SYMATTR Value CMOSN
SYMATTR Value2 l={L2} w={W2} ad={Ldiffn*W2} as={Ldiffn*W2} pd={2*Ldiffn+W2} ps={2*Ldiffn+W2}
SYMBOL pmos4 -400 -608 M0
SYMATTR InstName M4
SYMATTR Value CMOSP
SYMATTR Value2 l={L31} w={W31} ad={Ldiffp*W31} as={Ldiffp*W31} pd={2*Ldiffp+W31} ps={2*Ldiffp+W31}
SYMBOL pmos4 544 -608 R0
SYMATTR InstName M5
SYMATTR Value CMOSP
SYMATTR Value2 l={L3} w={W3} ad={Ldiffp*W3} as={Ldiffp*W3} pd={2*Ldiffp+W3} ps={2*Ldiffp+W3}
SYMBOL pmos4 880 -448 R0
SYMATTR InstName M6
SYMATTR Value CMOSP
SYMATTR Value2 l={L4} w={W4} ad={Ldiffp*W4} as={Ldiffp*W4} pd={2*Ldiffp+W4} ps={2*Ldiffp+W4}
SYMBOL nmos4 -288 336 R0
SYMATTR InstName MBn
SYMATTR Value CMOSN
SYMATTR Value2 l={LBn} w={WBn} ad={Ldiffn*WBn} as={Ldiffn*WBn} pd={2*Ldiffn+WBn} ps={2*Ldiffn+WBn}
SYMBOL nmos4 640 432 M0
SYMATTR InstName M7
SYMATTR Value CMOSN
SYMATTR Value2 l={L6} w={W6} ad={Ldiffn*W6} as={Ldiffn*W6} pd={2*Ldiffn+W6} ps={2*Ldiffn+W6}
SYMBOL nmos4 1216 432 M0
SYMATTR InstName M8
SYMATTR Value CMOSN
SYMATTR Value2 l={L8} w={W8} ad={Ldiffn*W8} as={Ldiffn*W8} pd={2*Ldiffn+W8} ps={2*Ldiffn+W8}
SYMBOL nmos4 880 432 R0
SYMATTR InstName M9
SYMATTR Value CMOSN
SYMATTR Value2 l={L7} w={W7} ad={Ldiffn*W7} as={Ldiffn*W7} pd={2*Ldiffn+W7} ps={2*Ldiffn+W7}
SYMBOL nmos4 272 432 R0
SYMATTR InstName M10
SYMATTR Value CMOSN
SYMATTR Value2 l={L5} w={W5} ad={Ldiffn*W5} as={Ldiffn*W5} pd={2*Ldiffn+W5} ps={2*Ldiffn+W5}
SYMBOL nmos4 720 784 R0
SYMATTR InstName MS1
SYMATTR Value CMOSN
SYMATTR Value2 l={LS} w={WS} ad={Ldiffn*WS} as={Ldiffn*WS} pd={2*Ldiffn+WS} ps={2*Ldiffn+WS}
SYMBOL nmos4 1728 80 M0
SYMATTR InstName M11
SYMATTR Value CMOSN
SYMATTR Value2 l={L11} w={W11} ad={Ldiffn*W11} as={Ldiffn*W11} pd={2*Ldiffn+W11} ps={2*Ldiffn+W11}
SYMBOL nmos4 1968 80 R0
SYMATTR InstName M12
SYMATTR Value CMOSN
SYMATTR Value2 l={L12} w={W12} ad={Ldiffn*W12} as={Ldiffn*W12} pd={2*Ldiffn+W12} ps={2*Ldiffn+W12}
SYMBOL pmos4 1632 -128 R0
SYMATTR InstName M13
SYMATTR Value CMOSP
SYMATTR Value2 l={L9} w={W9} ad={Ldiffp*W9} as={Ldiffp*W9} pd={2*Ldiffp+W9} ps={2*Ldiffp+W9}
SYMBOL pmos4 1792 -352 R0
SYMATTR InstName MBp
SYMATTR Value CMOSP
SYMATTR Value2 l={LBp} w={WBp} ad={Ldiffp*WBp} as={Ldiffp*WBp} pd={2*Ldiffp+WBp} ps={2*Ldiffp+WBp}
SYMBOL pmos4 2064 -128 M0
SYMATTR InstName M14
SYMATTR Value CMOSP
SYMATTR Value2 l={L10} w={W10} ad={Ldiffp*W10} as={Ldiffp*W10} pd={2*Ldiffp+W10} ps={2*Ldiffp+W10}
SYMBOL inversor 2464 48 R0
SYMATTR InstName X4
TEXT -1544 -768 Left 2 !.param W1=50u L1=10u
TEXT -1544 -736 Left 2 !.param W2=50u L2=10u
TEXT -1544 -704 Left 2 !.param W31=150u L31=10u
TEXT -1544 -664 Left 2 !.param W41=150u L41=10u
TEXT -1544 -632 Left 2 !.param W3=150u L3=10u
TEXT -1544 -592 Left 2 !.param W4=150u L4=10u
TEXT -1544 -544 Left 2 !.param WBn=100u LBn=10u
TEXT -1544 -496 Left 2 !.param W5=100u L5=10u
TEXT -1544 -464 Left 2 !.param W6=100u L6=10u
TEXT -1544 -432 Left 2 !.param W7=100u L7=10u
TEXT -1544 -400 Left 2 !.param W8=100u L8=10u
TEXT -1544 -368 Left 2 !.param WS=10u LS=10u
TEXT -1544 -896 Left 2 !.include ./T180nm.lib
TEXT -1552 -840 Left 2 !.param Ldiffn=0.48u Ldiffp=0.48u
TEXT -1544 -320 Left 2 !.param W9=200u L9=10u
TEXT -1544 -288 Left 2 !.param W10=200u L10=10u
TEXT -1544 -256 Left 2 !.param W11=100u L11=10u
TEXT -1544 -216 Left 2 !.param W12=100u L12=10u
TEXT -1544 -176 Left 2 !.param WBp=500u LBp=10u
