Version 4
SHEET 1 1032 1476
WIRE 224 64 224 -288
WIRE 192 96 -528 96
WIRE 224 96 224 64
WIRE 560 96 432 96
WIRE 432 112 432 96
WIRE 432 112 304 112
WIRE 896 112 672 112
WIRE 192 128 112 128
WIRE 432 144 304 144
WIRE 896 144 672 144
WIRE 192 160 -192 160
WIRE 432 160 432 144
WIRE 560 160 432 160
WIRE 224 192 224 160
WIRE -528 288 -528 96
WIRE -192 288 -192 160
WIRE -1104 336 -1104 256
WIRE -976 336 -976 256
WIRE -528 496 -528 368
WIRE -192 496 -192 368
WIRE 224 496 224 192
WIRE 592 496 592 192
WIRE -1104 512 -1104 416
WIRE -976 512 -976 416
FLAG 224 496 0
FLAG 224 -288 VDD
FLAG -1104 512 0
FLAG -1104 256 VDD
FLAG -976 512 0
FLAG -976 256 Vbias
FLAG 112 128 Vbias
FLAG -192 496 0
FLAG -528 496 0
FLAG 592 496 0
FLAG 896 112 Vop
FLAG 896 144 Vom
SYMBOL voltage -1104 320 R0
WINDOW 123 0 0 Left 2
WINDOW 39 0 0 Left 2
SYMATTR InstName V2
SYMATTR Value 1.8
SYMBOL preamp 224 64 R0
SYMATTR InstName X1
SYMBOL voltage -976 320 R0
WINDOW 123 0 0 Left 2
WINDOW 39 0 0 Left 2
SYMATTR InstName V1
SYMATTR Value 0.6
SYMBOL voltage -192 272 R0
WINDOW 123 0 0 Left 0
WINDOW 39 0 0 Left 0
SYMATTR InstName V-
SYMATTR Value 0.6
SYMBOL voltage -528 272 R0
WINDOW 123 0 0 Left 0
WINDOW 39 0 0 Left 0
SYMATTR InstName V+
SYMATTR Value 0.6
SYMBOL decision 608 128 R0
SYMATTR InstName X2
TEXT -1136 536 Left 2 !.dc V+ 1.3 0 0.01
