Version 4
SHEET 1 880 1476
WIRE 272 32 272 -288
WIRE -224 128 -592 128
WIRE 176 128 -224 128
WIRE 560 128 368 128
WIRE -592 192 -592 128
WIRE -1104 336 -1104 256
WIRE 272 496 272 256
WIRE -1104 512 -1104 416
WIRE -592 528 -592 272
FLAG 272 496 0
FLAG 272 -288 VDD
FLAG 560 128 VOUT1
FLAG -224 128 VIN1
FLAG -1104 512 0
FLAG -592 528 0
FLAG -1104 256 VDD
SYMBOL voltage -592 176 R0
WINDOW 3 -57 132 Left 2
WINDOW 123 0 0 Left 2
WINDOW 39 0 0 Left 2
SYMATTR Value PULSE(0 1.8 50n 1p 1p 100n 200n)
SYMATTR InstName V1
SYMBOL voltage -1104 320 R0
WINDOW 123 0 0 Left 2
WINDOW 39 0 0 Left 2
SYMATTR InstName V2
SYMATTR Value 1.8
SYMBOL delay 240 128 R0
SYMATTR InstName X1
TEXT -1240 -456 Left 2 !.tran 0 250n 0 .1n
