Version 4
SHEET 1 2560 1476
WIRE 720 -208 224 -208
WIRE 1200 -208 1200 -368
WIRE 1200 -208 720 -208
WIRE 1632 -208 1200 -208
WIRE 2064 -208 1632 -208
WIRE 224 32 224 -208
WIRE 720 32 720 -208
WIRE 1632 32 1632 -208
WIRE 2064 32 2064 -208
WIRE 160 128 -176 128
WIRE 656 128 400 128
WIRE 1200 128 896 128
WIRE 1568 128 1200 128
WIRE 2000 128 1808 128
WIRE 2448 128 2240 128
WIRE 1200 304 1200 128
WIRE 224 720 224 256
WIRE 720 720 720 256
WIRE 720 720 224 720
WIRE 1200 720 1200 368
WIRE 1200 720 720 720
WIRE 1632 720 1632 256
WIRE 1632 720 1200 720
WIRE 2064 720 2064 256
WIRE 2064 720 1632 720
WIRE 1200 832 1200 720
FLAG -176 128 Vin
IOPIN -176 128 In
FLAG 1200 -368 Vdd
IOPIN 1200 -368 In
FLAG 1200 832 Vss
IOPIN 1200 832 In
FLAG 2448 128 Vout
IOPIN 2448 128 Out
SYMBOL inversor 224 128 R0
SYMATTR InstName X1
SYMBOL inversor 720 128 R0
WINDOW 39 -48 31 Left 2
SYMATTR SpiceLine Lp={L} Ln={L} Wp={W} Wn={W/2}
SYMATTR InstName X2
SYMBOL inversor 1632 128 R0
WINDOW 39 -48 31 Left 2
SYMATTR SpiceLine Lp={L} Ln={L} Wp={W} Wn={W/2}
SYMATTR InstName X3
SYMBOL cap 1184 304 R0
SYMATTR InstName C1
SYMATTR Value {C}
SYMBOL inversor 2064 128 R0
SYMATTR InstName X4
TEXT -136 -160 Left 2 !.param L=3u W=1u C=1.55p
