Version 4
SHEET 1 880 1476
WIRE 272 32 272 -128
WIRE -80 128 -288 128
WIRE 176 128 -80 128
WIRE 560 128 368 128
WIRE 592 128 560 128
WIRE -496 192 -496 112
WIRE -288 192 -288 128
WIRE 272 496 272 256
WIRE -496 528 -496 272
WIRE -288 528 -288 272
FLAG 272 496 0
FLAG 272 -128 VDD
FLAG 560 128 VOUT1
FLAG -80 128 VIN1
FLAG -496 528 0
FLAG -288 528 0
FLAG -496 112 VDD
SYMBOL voltage -288 176 R0
WINDOW 3 -57 132 Left 2
WINDOW 123 0 0 Left 2
WINDOW 39 0 0 Left 2
SYMATTR Value PULSE(0 1.8 50n 1p 1p 100n 200n)
SYMATTR InstName V1
SYMBOL voltage -496 176 R0
WINDOW 123 0 0 Left 2
WINDOW 39 0 0 Left 2
SYMATTR InstName V2
SYMATTR Value 1.8
SYMBOL delay 240 128 R0
SYMATTR InstName X1
TEXT -144 504 Left 2 !.tran 0 250n 0 .01n
