Version 4
SHEET 1 2560 1476
WIRE 720 -208 224 -208
WIRE 912 -208 912 -368
WIRE 912 -208 720 -208
WIRE 1632 -208 912 -208
WIRE 2064 -208 1632 -208
WIRE 224 32 224 -208
WIRE 720 32 720 -208
WIRE 1632 32 1632 -208
WIRE 2064 32 2064 -208
WIRE 160 128 96 128
WIRE 656 128 400 128
WIRE 1200 128 896 128
WIRE 1568 128 1200 128
WIRE 2000 128 1808 128
WIRE 2448 128 2240 128
WIRE 96 144 96 128
WIRE 96 144 -176 144
WIRE 1200 304 1200 128
WIRE 224 720 224 256
WIRE 720 720 720 256
WIRE 720 720 224 720
WIRE 880 720 720 720
WIRE 1200 720 1200 368
WIRE 1200 720 880 720
WIRE 1632 720 1632 256
WIRE 1632 720 1200 720
WIRE 2064 720 2064 256
WIRE 2064 720 1632 720
WIRE 880 832 880 720
FLAG -176 144 Vin
IOPIN -176 144 In
FLAG 912 -368 Vdd
IOPIN 912 -368 In
FLAG 880 832 Vss
IOPIN 880 832 In
FLAG 2448 128 Vout
IOPIN 2448 128 Out
SYMBOL inversor 224 128 R0
SYMATTR InstName X1
SYMBOL inversor 720 128 R0
WINDOW 39 -48 31 Left 2
SYMATTR InstName X2
SYMATTR SpiceLine Lp={L} Ln={L}
SYMBOL inversor 1632 128 R0
WINDOW 39 -48 31 Left 2
SYMATTR InstName X3
SYMATTR SpiceLine Lp={L} Ln={L}
SYMBOL cap 1184 304 R0
SYMATTR InstName C1
SYMATTR Value {C}
SYMBOL inversor 2064 128 R0
SYMATTR InstName X4
TEXT -272 -512 Left 2 !.param L=180n C=1p
