Version 4
SHEET 1 1432 1476
WIRE -288 -160 -928 -160
WIRE 48 -160 -288 -160
WIRE 448 -160 48 -160
WIRE -928 -32 -928 -160
WIRE -288 -16 -288 -160
WIRE 448 0 448 -160
WIRE -384 16 -624 16
WIRE 352 32 -192 32
WIRE 1088 48 544 48
WIRE -992 64 -1136 64
WIRE -624 64 -752 64
WIRE -384 64 -624 64
WIRE 352 80 -16 80
WIRE -448 144 -640 144
WIRE -384 144 -448 144
WIRE 352 160 96 160
WIRE 1088 160 544 160
WIRE -928 352 -928 192
WIRE -288 352 -288 208
WIRE -288 352 -928 352
WIRE 48 352 -288 352
WIRE 448 352 448 224
WIRE 448 352 48 352
WIRE -448 528 -448 144
WIRE 96 528 96 160
WIRE 96 528 -448 528
WIRE -624 576 -624 64
WIRE -16 576 -16 80
WIRE -16 576 -624 576
FLAG -624 16 D
IOPIN -624 16 In
FLAG -640 144 Clk
IOPIN -640 144 In
FLAG 48 -160 Vdd
IOPIN 48 -160 In
FLAG 48 352 Vss
IOPIN 48 352 In
FLAG 1088 160 ~Q
IOPIN 1088 160 Out
FLAG 1088 48 Q
IOPIN 1088 48 Out
FLAG -1136 64 R
IOPIN -1136 64 In
SYMBOL latch_negativo -288 96 R0
SYMATTR InstName X1
SYMBOL latch_positivo 448 112 R0
SYMATTR InstName X2
SYMBOL inversor -928 64 R0
SYMATTR InstName X3
