Version 4
SHEET 1 1432 1476
WIRE -464 -208 -800 -208
WIRE 208 32 208 -240
WIRE -464 64 -464 -208
WIRE 112 64 -464 64
WIRE 320 80 304 80
WIRE 320 96 320 80
WIRE 576 96 320 96
WIRE 592 96 576 96
WIRE 112 112 -192 112
WIRE 592 144 592 96
WIRE 112 192 16 192
WIRE 16 224 16 192
WIRE 16 224 -608 224
WIRE -800 256 -800 -208
WIRE 592 304 592 208
WIRE -1104 336 -1104 256
WIRE -192 400 -192 112
WIRE 208 432 208 256
WIRE -1104 512 -1104 416
WIRE -800 592 -800 336
WIRE -608 720 -608 224
WIRE -192 736 -192 480
WIRE -608 1056 -608 800
FLAG 208 432 0
FLAG 208 -240 VDD
FLAG -1104 512 0
FLAG -800 592 0
FLAG -1104 256 VDD
FLAG 576 96 Q
FLAG 592 304 0
FLAG -608 1056 0
FLAG -608 224 Clk
FLAG -464 -208 D
FLAG -192 736 0
FLAG -192 112 R
SYMBOL voltage -800 240 R0
WINDOW 3 -57 132 Left 2
WINDOW 123 0 0 Left 2
WINDOW 39 0 0 Left 2
SYMATTR Value PULSE(0 1.8 75n 1p 1p 10n 20n)
SYMATTR InstName V1
SYMBOL voltage -1104 320 R0
WINDOW 123 0 0 Left 2
WINDOW 39 0 0 Left 2
SYMATTR InstName V2
SYMATTR Value 1.8
SYMBOL cap 576 144 R0
SYMATTR InstName C1
SYMATTR Value 0.1f
SYMBOL voltage -608 704 R0
WINDOW 3 -57 132 Left 2
WINDOW 123 0 0 Left 2
WINDOW 39 0 0 Left 2
SYMATTR Value PULSE(0 1.3 20n 1p 1p 10n 20n)
SYMATTR InstName V3
SYMBOL voltage -192 384 R0
WINDOW 3 -57 132 Left 2
WINDOW 123 0 0 Left 2
WINDOW 39 0 0 Left 2
SYMATTR Value PULSE(0 1.3 0 1p 1p 100n 1)
SYMATTR InstName V4
SYMBOL FFD 208 144 R0
SYMATTR InstName X1
TEXT 176 536 Left 2 !.tran 0 250n 0 .1n
