Version 4
SHEET 1 880 1476
WIRE 224 32 224 -288
WIRE -224 128 -592 128
WIRE 160 128 -224 128
WIRE 560 128 400 128
WIRE -592 192 -592 128
WIRE -1104 336 -1104 256
WIRE 224 496 224 256
WIRE -1104 512 -1104 416
WIRE -592 528 -592 272
WIRE 224 960 224 640
WIRE -224 1056 -592 1056
WIRE 160 1056 -224 1056
WIRE 560 1056 400 1056
WIRE -592 1120 -592 1056
WIRE 224 1424 224 1184
WIRE -592 1456 -592 1200
FLAG 224 496 0
FLAG 224 -288 VDD
FLAG 560 128 VOUT1
FLAG -224 128 VIN1
FLAG -1104 512 0
FLAG -592 528 0
FLAG -1104 256 VDD
FLAG 224 1424 0
FLAG 224 640 VDD
FLAG 560 1056 VOUT2
FLAG -224 1056 VIN2
FLAG -592 1456 0
SYMBOL voltage -592 176 R0
WINDOW 3 -57 132 Left 2
WINDOW 123 0 0 Left 2
WINDOW 39 0 0 Left 2
SYMATTR Value PULSE(0 1.8 50p 1p 1p 100p 200p)
SYMATTR InstName V1
SYMBOL voltage -1104 320 R0
WINDOW 123 0 0 Left 2
WINDOW 39 0 0 Left 2
SYMATTR InstName V2
SYMATTR Value 1.8
SYMBOL inversor 224 128 R0
SYMATTR InstName X1
SYMBOL voltage -592 1104 R0
WINDOW 3 -57 132 Left 2
WINDOW 123 0 0 Left 2
WINDOW 39 0 0 Left 2
SYMATTR Value PULSE(0 1.8 50p 1p 1p 100p 200p)
SYMATTR InstName V3
SYMBOL inversor 224 1056 R0
WINDOW 39 -48 31 Left 2
SYMATTR SpiceLine Lp=1u Ln=1u
SYMATTR InstName X2
TEXT -1240 -456 Left 2 !.tran 0 250p 0 .1p
