Version 4
SHEET 1 880 1248
WIRE 48 208 48 128
WIRE 448 352 336 352
WIRE -224 384 -320 384
WIRE 48 688 48 544
WIRE -48 864 -128 864
WIRE 272 864 176 864
WIRE 48 1104 48 928
FLAG -320 384 L1
IOPIN -320 384 Out
FLAG 448 352 L2
IOPIN 448 352 Out
FLAG 48 128 Control
IOPIN 48 128 In
FLAG -128 864 Vdd
IOPIN -128 864 In
FLAG 272 864 Vss
IOPIN 272 864 In
FLAG 48 1104 Control
IOPIN 48 1104 In
FLAG 368 544 Vss
IOPIN 368 544 In
FLAG 336 160 Vdd
IOPIN 336 160 In
SYMBOL transgate 32 368 R0
SYMATTR InstName X1
SYMBOL inversor 48 864 R270
SYMATTR InstName X2
