Version 4
SHEET 1 1432 1476
WIRE 240 -272 -592 -272
WIRE 240 48 240 -272
WIRE 112 112 -48 112
WIRE 1360 112 352 112
WIRE 1376 112 1360 112
WIRE 1376 160 1376 112
WIRE -592 192 -592 -272
WIRE -48 192 -48 112
WIRE 1376 320 1376 224
WIRE -1104 336 -1104 256
WIRE -48 384 -48 272
WIRE -1104 512 -1104 416
WIRE -592 528 -592 272
FLAG -1104 512 0
FLAG -592 528 0
FLAG -1104 256 VDD
FLAG 1360 112 Vout
FLAG 1376 320 0
FLAG -48 384 0
FLAG 336 48 VDD
FLAG 336 192 0
SYMBOL voltage -592 176 R0
WINDOW 3 -57 132 Left 2
WINDOW 123 0 0 Left 2
WINDOW 39 0 0 Left 2
SYMATTR Value PULSE(0 1.8 50n 1p 1p 100n 200n)
SYMATTR InstName V1
SYMBOL voltage -1104 320 R0
WINDOW 123 0 0 Left 2
WINDOW 39 0 0 Left 2
SYMATTR InstName V2
SYMATTR Value 1.8
SYMBOL cap 1360 160 R0
SYMATTR InstName C1
SYMATTR Value 0.1f
SYMBOL llave 240 112 R0
SYMATTR InstName X1
SYMBOL voltage -48 176 R0
WINDOW 3 -57 132 Left 2
WINDOW 123 0 0 Left 2
WINDOW 39 0 0 Left 2
SYMATTR Value PULSE(0 1.8 50n 1p 1p 25n 50n)
SYMATTR InstName V3
TEXT -1240 -456 Left 2 !.tran 0 250n 0 .1n
