Version 4
SHEET 1 880 1476
WIRE 224 32 224 -288
WIRE 160 80 -592 80
WIRE 560 128 400 128
WIRE 160 192 -144 192
WIRE -592 304 -592 80
WIRE -144 304 -144 192
WIRE -1104 336 -1104 256
WIRE 224 496 224 256
WIRE -1104 512 -1104 416
WIRE -592 528 -592 384
WIRE -144 528 -144 384
FLAG 224 496 0
FLAG 224 -288 VDD
FLAG 560 128 VOUT1
FLAG -1104 512 0
FLAG -592 528 0
FLAG -1104 256 VDD
FLAG -144 528 0
SYMBOL voltage -592 288 R0
WINDOW 3 -57 132 Left 2
WINDOW 123 0 0 Left 2
WINDOW 39 0 0 Left 2
SYMATTR Value PULSE(0 1.8 50n 1p 1p 100n 200n)
SYMATTR InstName V1
SYMBOL voltage -1104 320 R0
WINDOW 123 0 0 Left 2
WINDOW 39 0 0 Left 2
SYMATTR InstName V2
SYMATTR Value 1.8
SYMBOL nand 224 128 R0
SYMATTR InstName X1
SYMBOL voltage -144 288 R0
WINDOW 3 -57 132 Left 2
WINDOW 123 0 0 Left 2
WINDOW 39 0 0 Left 2
SYMATTR Value PULSE(0 1.8 25n 1p 1p 100n 200n)
SYMATTR InstName V3
TEXT -1240 -456 Left 2 !.tran 0 250n 0 .1n
