Version 4
SHEET 1 880 1476
WIRE 224 32 224 -16
WIRE 160 80 -208 80
WIRE -208 128 -208 80
WIRE -208 128 -320 128
WIRE 576 128 368 128
WIRE -208 176 -208 128
WIRE -80 176 -208 176
WIRE 160 176 0 176
WIRE 576 272 576 128
WIRE 224 336 224 256
WIRE -656 384 -656 304
WIRE -320 384 -320 128
WIRE 288 384 288 224
WIRE -656 592 -656 464
WIRE -320 592 -320 464
WIRE 288 592 288 464
WIRE 576 592 576 336
FLAG 224 336 0
FLAG 224 -16 VDD
FLAG -656 592 0
FLAG -320 592 0
FLAG -656 304 VDD
FLAG 576 592 0
FLAG 576 128 Vout
FLAG 288 592 0
SYMBOL voltage -320 368 R0
WINDOW 3 -57 132 Left 2
WINDOW 123 0 0 Left 2
WINDOW 39 0 0 Left 2
SYMATTR Value 1.3
SYMATTR InstName V1
SYMBOL voltage -656 368 R0
WINDOW 123 0 0 Left 2
WINDOW 39 0 0 Left 2
SYMATTR InstName V2
SYMATTR Value 1.8
SYMBOL voltage 16 176 R90
WINDOW 0 -32 56 VBottom 2
WINDOW 3 32 56 VTop 2
WINDOW 123 60 56 VTop 2
WINDOW 39 0 0 Left 0
SYMATTR InstName V3
SYMATTR Value 0
SYMATTR Value2 AC 1
SYMBOL cap 560 272 R0
SYMATTR InstName C1
SYMATTR Value 3.43p
SYMBOL opamp 224 128 R0
SYMATTR InstName X1
SYMBOL voltage 288 368 R0
WINDOW 3 -57 132 Left 2
WINDOW 123 0 0 Left 2
WINDOW 39 0 0 Left 2
SYMATTR Value 0.6
SYMATTR InstName V4
TEXT -688 616 Left 2 !.ac dec 1000 0.001 10meg
