Version 4
SHEET 1 880 712
WIRE 272 -304 224 -304
WIRE 272 -176 272 -224
WIRE 176 96 48 96
WIRE 576 112 240 112
WIRE 176 128 48 128
WIRE 288 544 224 544
WIRE 288 560 288 544
WIRE 288 688 288 640
FLAG 576 112 Vout
IOPIN 576 112 Out
FLAG 224 -304 Vdd
IOPIN 224 -304 In
FLAG 224 544 Vss
IOPIN 224 544 In
FLAG 48 96 -
IOPIN 48 96 In
FLAG 48 128 +
IOPIN 48 128 In
FLAG 272 -176 0
FLAG 288 688 0
SYMBOL Opamps\\opamp 208 48 R0
SYMATTR InstName U2
SYMBOL res 256 -320 R0
SYMATTR InstName R1
SYMATTR Value 1
SYMBOL res 272 544 R0
SYMATTR InstName R2
SYMATTR Value 1
TEXT -32 -200 Left 2 !.lib opamp.sub
