Version 4
SHEET 1 880 1476
WIRE 224 32 224 -16
WIRE 160 80 -208 80
WIRE -208 128 -208 80
WIRE -208 128 -320 128
WIRE 576 128 368 128
WIRE -208 176 -208 128
WIRE 160 176 -208 176
WIRE 224 336 224 256
WIRE 288 352 288 224
WIRE -656 384 -656 304
WIRE -320 384 -320 128
WIRE -656 592 -656 464
WIRE -320 592 -320 464
WIRE 288 592 288 432
FLAG 224 336 0
FLAG 224 -16 VDD
FLAG -656 592 0
FLAG -320 592 0
FLAG -656 304 VDD
FLAG 576 128 Vout
FLAG 288 592 0
SYMBOL voltage -320 368 R0
WINDOW 3 -57 132 Left 2
WINDOW 123 0 0 Left 2
WINDOW 39 0 0 Left 2
SYMATTR Value 1.3
SYMATTR InstName V1
SYMBOL voltage -656 368 R0
WINDOW 123 0 0 Left 2
WINDOW 39 0 0 Left 2
SYMATTR InstName V2
SYMATTR Value 1.8
SYMBOL opamp 224 128 R0
SYMATTR InstName X1
SYMBOL voltage 288 336 R0
WINDOW 123 0 0 Left 0
WINDOW 39 0 0 Left 0
SYMATTR InstName V3
SYMATTR Value 0.6
TEXT -688 616 Left 2 !.op
