Version 4
SHEET 1 880 1476
WIRE 240 -160 80 -160
WIRE 512 -160 320 -160
WIRE 224 32 224 -16
WIRE -128 80 -304 80
WIRE 80 80 80 -160
WIRE 80 80 -48 80
WIRE 160 80 80 80
WIRE 512 128 512 -160
WIRE 512 128 368 128
WIRE 560 128 512 128
WIRE -304 144 -304 80
WIRE 160 176 64 176
WIRE 64 336 64 176
WIRE 224 336 224 256
WIRE -656 416 -656 336
WIRE -656 592 -656 496
WIRE 64 672 64 416
FLAG 224 336 0
FLAG 224 -16 VDD
FLAG -656 592 0
FLAG 64 672 0
FLAG -656 336 VDD
FLAG 560 128 Vout
FLAG -304 144 0
DATAFLAG 512 128 ""
DATAFLAG -304 80 ""
SYMBOL voltage 64 320 R0
WINDOW 3 -57 132 Left 2
WINDOW 123 0 0 Left 2
WINDOW 39 0 0 Left 2
SYMATTR Value 1.8
SYMATTR InstName V1
SYMBOL voltage -656 400 R0
WINDOW 123 0 0 Left 2
WINDOW 39 0 0 Left 2
SYMATTR InstName V2
SYMATTR Value 1.8
SYMBOL opamp 224 128 R0
SYMATTR InstName X1
SYMBOL res 336 -176 R90
WINDOW 0 0 56 VBottom 2
WINDOW 3 32 56 VTop 2
SYMATTR InstName R1
SYMATTR Value 100k
SYMBOL res -32 64 R90
WINDOW 0 0 56 VBottom 2
WINDOW 3 32 56 VTop 2
SYMATTR InstName R2
SYMATTR Value 10k
TEXT -752 -72 Left 2 !.op
