Version 4
SHEET 1 1808 1360
WIRE -128 -176 -128 -304
WIRE -128 -176 -288 -176
WIRE 48 -176 -128 -176
WIRE -288 -96 -288 -176
WIRE 48 -96 48 -176
WIRE -288 -48 -288 -80
WIRE 48 -48 48 -80
WIRE -160 -16 -240 -16
WIRE 0 -16 -160 -16
WIRE 496 0 496 -192
WIRE -288 64 -288 0
WIRE -160 64 -160 -16
WIRE -160 64 -288 64
WIRE 48 96 48 0
WIRE 432 96 48 96
WIRE 768 96 672 96
WIRE -288 128 -288 64
WIRE 48 128 48 96
WIRE -80 176 -288 176
WIRE 48 176 -80 176
WIRE -336 208 -400 208
WIRE 176 208 96 208
WIRE -80 224 -80 176
WIRE -288 320 -288 224
WIRE -80 320 -288 320
WIRE 48 320 48 224
WIRE 48 320 -80 320
WIRE 496 320 496 224
WIRE -80 416 -80 320
WIRE -160 496 -160 64
WIRE -128 496 -160 496
WIRE -80 496 -80 464
WIRE -80 608 -80 512
FLAG -128 -304 Vdd
IOPIN -128 -304 In
FLAG -80 608 Vss
IOPIN -80 608 In
FLAG 496 -192 Vdd
IOPIN 496 -192 In
FLAG 496 320 Vss
IOPIN 496 320 In
FLAG 768 96 Vout
IOPIN 768 96 Out
FLAG -400 208 V-
IOPIN -400 208 In
FLAG 176 208 V+
IOPIN 176 208 In
FLAG -80 224 Vss
IOPIN -80 224 In
SYMBOL nmos4 -336 128 R0
SYMATTR InstName M11
SYMATTR Value CMOSN
SYMATTR Value2 l={L11} w={W11} ad={Ldiffn*W11} as={Ldiffn*W11} pd={2*Ldiffn+W11} ps={2*Ldiffn+W11}
SYMBOL nmos4 96 128 M0
SYMATTR InstName M12
SYMATTR Value CMOSN
SYMATTR Value2 l={L12} w={W12} ad={Ldiffn*W12} as={Ldiffn*W12} pd={2*Ldiffn+W12} ps={2*Ldiffn+W12}
SYMBOL pmos4 -240 -96 M0
SYMATTR InstName M9
SYMATTR Value CMOSP
SYMATTR Value2 l={L9} w={W9} ad={Ldiffp*W9} as={Ldiffp*W9} pd={2*Ldiffp+W9} ps={2*Ldiffp+W9}
SYMBOL pmos4 0 -96 R0
SYMATTR InstName M10
SYMATTR Value CMOSP
SYMATTR Value2 l={L10} w={W10} ad={Ldiffp*W10} as={Ldiffp*W10} pd={2*Ldiffp+W10} ps={2*Ldiffp+W10}
SYMBOL inversor 496 96 R0
SYMATTR InstName X1
SYMBOL nmos4 -128 416 R0
SYMATTR InstName MB
SYMATTR Value CMOSN
SYMATTR Value2 l={LB} w={WB} ad={Ldiffn*WB} as={Ldiffn*WB} pd={2*Ldiffn+WB} ps={2*Ldiffn+WB}
TEXT -1232 -480 Left 2 !.include ./T180nm.lib
TEXT -1240 -424 Left 2 !.param Ldiffn=0.48u Ldiffp=0.48u
TEXT -1240 -360 Left 2 !.param W9=200u L9=10u
TEXT -1240 -328 Left 2 !.param W10=200u L10=10u
TEXT -1240 -296 Left 2 !.param W11=100u L11=10u
TEXT -1240 -256 Left 2 !.param W12=100u L12=10u
TEXT -1240 -216 Left 2 !.param WB=100u LB=10u
