Version 4
SHEET 1 1032 1476
WIRE 224 64 224 -288
WIRE 192 96 -528 96
WIRE 224 96 224 64
WIRE 976 112 304 112
WIRE 192 128 112 128
WIRE 704 144 304 144
WIRE 192 160 -192 160
WIRE 224 192 224 160
WIRE -528 288 -528 96
WIRE -192 288 -192 160
WIRE 704 288 704 144
WIRE 976 288 976 112
WIRE -1104 336 -1104 256
WIRE -976 336 -976 256
WIRE -528 496 -528 368
WIRE -192 496 -192 368
WIRE 224 496 224 192
WIRE 704 496 704 368
WIRE 976 496 976 368
WIRE -1104 512 -1104 416
WIRE -976 512 -976 416
FLAG 224 496 0
FLAG 224 -288 VDD
FLAG -1104 512 0
FLAG -1104 256 VDD
FLAG -976 512 0
FLAG -976 256 Vbias
FLAG 112 128 Vbias
FLAG -192 496 0
FLAG -528 496 0
FLAG 704 496 0
FLAG 976 496 0
SYMBOL voltage -1104 320 R0
WINDOW 123 0 0 Left 2
WINDOW 39 0 0 Left 2
SYMATTR InstName V2
SYMATTR Value 1.8
SYMBOL preamp 224 64 R0
SYMATTR InstName X1
SYMBOL voltage -976 320 R0
WINDOW 123 0 0 Left 2
WINDOW 39 0 0 Left 2
SYMATTR InstName V1
SYMATTR Value 0.6
SYMBOL voltage -192 272 R0
WINDOW 123 0 0 Left 0
WINDOW 39 0 0 Left 0
SYMATTR InstName V-
SYMATTR Value SINE(0.6 0.2 1k 0 0 180)
SYMBOL voltage -528 272 R0
WINDOW 123 0 0 Left 0
WINDOW 39 0 0 Left 0
SYMATTR InstName V+
SYMATTR Value SINE(0.6 0.2 1k)
SYMBOL voltage 704 272 R0
WINDOW 123 0 0 Left 0
WINDOW 39 0 0 Left 0
SYMATTR InstName I-
SYMATTR Value 0
SYMBOL voltage 976 272 R0
WINDOW 123 0 0 Left 0
WINDOW 39 0 0 Left 0
SYMATTR InstName I+
SYMATTR Value 0
TEXT -1138 536 Left 2 !;dc V+ 1.3 0 0.01
TEXT -1136 576 Left 2 !;op V+ 1.3 0 0.01
TEXT -1128 608 Left 2 !.tran 0 5m 0 0.01m
