Version 4
SHEET 1 2388 1476
WIRE 416 -416 -208 -416
WIRE 1440 -416 416 -416
WIRE -208 -160 -208 -416
WIRE -336 -96 -416 -96
WIRE -16 -96 -96 -96
WIRE 1024 -64 832 -64
WIRE 1440 -64 1440 -416
WIRE 1440 -64 1216 -64
WIRE 2384 -48 1808 -48
WIRE -416 80 -416 -96
WIRE -272 80 -416 80
WIRE -16 80 -16 -96
WIRE -16 80 -208 80
WIRE -912 144 -912 16
WIRE -1584 160 -1584 80
WIRE -1440 160 -1440 80
WIRE -1264 160 -1264 80
WIRE 1808 224 1808 -48
WIRE 1872 224 1808 224
WIRE 2272 240 2064 240
WIRE 992 288 976 288
WIRE 1136 288 992 288
WIRE -256 320 -256 272
WIRE -1584 336 -1584 240
WIRE -1440 336 -1440 240
WIRE -1440 336 -1584 336
WIRE -1264 336 -1264 240
WIRE -1264 336 -1440 336
WIRE 1440 352 1440 -64
WIRE 1872 352 1440 352
WIRE 2384 352 2384 -48
WIRE 2384 352 2064 352
WIRE -912 368 -912 224
WIRE -416 368 -416 80
WIRE -416 368 -912 368
WIRE -320 368 -416 368
WIRE 1136 368 1136 288
WIRE -1440 384 -1440 336
WIRE -1440 384 -1520 384
WIRE 976 400 976 288
WIRE 1040 400 976 400
WIRE -16 416 -16 80
WIRE -16 416 -112 416
WIRE 1440 416 1440 352
WIRE 1440 416 1232 416
WIRE -1440 448 -1440 384
WIRE 832 448 832 -64
WIRE 1040 448 832 448
WIRE -320 464 -432 464
WIRE -16 480 -16 416
WIRE 336 480 -16 480
WIRE 736 528 544 528
WIRE 1040 528 736 528
WIRE 336 576 240 576
WIRE -256 624 -256 544
WIRE 464 720 464 624
FLAG -912 16 Vdd
FLAG -256 272 Vdd
FLAG -256 624 Vss
FLAG -432 464 Vref1
FLAG -1584 80 Vdd
FLAG -1440 80 Vref1
FLAG -1520 384 Vss
FLAG -1440 448 0
FLAG 400 432 Vdd
FLAG 400 656 Vss
FLAG 240 576 Vref2
FLAG -1264 80 Vref2
FLAG 2272 240 Vout
FLAG 1968 192 Vdd
FLAG 992 288 Vdd
FLAG 1120 -160 Vdd
FLAG 1136 592 Vss
FLAG 1120 64 Vss
FLAG 1968 416 Vss
FLAG 1872 272 Vss
FLAG -112 -16 Vss
FLAG -112 -160 Vdd
FLAG 464 720 Vref2
FLAG -16 480 V-
FLAG 736 528 comparador
FLAG 416 -416 control
SYMBOL opamp -256 416 R0
SYMATTR InstName X1
SYMBOL cap -208 64 R90
WINDOW 0 0 32 VBottom 2
WINDOW 3 32 32 VTop 2
SYMATTR InstName C1
SYMATTR Value 3.43p
SYMBOL current -912 144 R0
WINDOW 123 0 0 Left 0
WINDOW 39 0 0 Left 0
SYMATTR InstName I1
SYMATTR Value PULSE(0 20n 40u 0 0 1 1)
SYMBOL voltage -1584 144 R0
WINDOW 123 0 0 Left 0
WINDOW 39 0 0 Left 0
SYMATTR InstName V1
SYMATTR Value 1.8
SYMBOL voltage -1440 144 R0
WINDOW 123 0 0 Left 0
WINDOW 39 0 0 Left 0
SYMATTR InstName V2
SYMATTR Value 1.3
SYMBOL comparator 400 528 R0
SYMATTR InstName X2
SYMBOL voltage -1264 144 R0
WINDOW 123 0 0 Left 0
WINDOW 39 0 0 Left 0
SYMATTR InstName V3
SYMATTR Value 0.6
SYMBOL FFD 1136 480 R0
SYMATTR InstName X3
SYMBOL FFD 1968 304 R0
SYMATTR InstName X4
SYMBOL delay 1152 -64 M0
SYMATTR InstName X5
SYMBOL llave -208 -96 R0
SYMATTR InstName X6
TEXT -912 -216 Left 2 !.tran 0 800u 0 0.01u startup
