Version 4
SHEET 1 1432 1476
WIRE -256 -272 -592 -272
WIRE 224 -272 -256 -272
WIRE 512 -96 512 -176
WIRE 512 -80 512 -96
WIRE 224 -48 224 -272
WIRE 224 -32 224 -48
WIRE 512 112 512 96
WIRE 1360 112 512 112
WIRE 1376 112 1360 112
WIRE -48 160 -48 128
WIRE -48 160 -400 160
WIRE 1376 160 1376 112
WIRE -592 192 -592 -272
WIRE -1104 288 -1104 256
WIRE -1008 288 -1104 288
WIRE 1376 320 1376 224
WIRE -1104 336 -1104 288
WIRE 544 352 544 288
WIRE 592 352 544 352
WIRE -1008 368 -1008 288
WIRE -112 368 -1008 368
WIRE 544 384 544 352
WIRE -256 464 -256 -272
WIRE -176 464 -256 464
WIRE 224 464 224 288
WIRE 224 464 64 464
WIRE -1104 512 -1104 416
WIRE -592 528 -592 272
WIRE 592 592 592 352
WIRE 592 592 -112 592
WIRE -400 656 -400 160
WIRE -400 992 -400 736
FLAG 544 384 0
FLAG 512 -176 VDD
FLAG -1104 512 0
FLAG -592 528 0
FLAG -1104 256 VDD
FLAG 1360 112 Vout
FLAG 1376 320 0
FLAG -400 992 0
SYMBOL voltage -592 176 R0
WINDOW 3 -57 132 Left 2
WINDOW 123 0 0 Left 2
WINDOW 39 0 0 Left 2
SYMATTR Value PULSE(0 1.8 50n 1p 1p 100n 200n)
SYMATTR InstName V1
SYMBOL voltage -1104 320 R0
WINDOW 123 0 0 Left 2
WINDOW 39 0 0 Left 2
SYMATTR InstName V2
SYMATTR Value 1.8
SYMBOL transgate 208 112 R0
SYMATTR InstName X1
SYMBOL inversor -112 464 R0
SYMATTR InstName X2
SYMBOL cap 1360 160 R0
SYMATTR InstName C1
SYMATTR Value 0.1f
SYMBOL voltage -400 640 R0
WINDOW 3 -57 132 Left 2
WINDOW 123 0 0 Left 2
WINDOW 39 0 0 Left 2
SYMATTR Value PULSE(0 1.8 20n 1p 1p 10n 20n)
SYMATTR InstName V3
TEXT -1240 -456 Left 2 !.tran 0 250n 0 .1n
