Version 4
SHEET 1 1432 1476
WIRE -256 -272 -592 -272
WIRE 224 -272 -256 -272
WIRE 512 -80 512 -176
WIRE 224 -32 224 -272
WIRE 1360 112 512 112
WIRE -48 160 -48 144
WIRE -48 160 -128 160
WIRE -592 192 -592 -272
WIRE 224 304 224 288
WIRE 544 304 544 288
WIRE -1104 336 -1104 256
WIRE 544 384 544 304
WIRE -256 464 -256 -272
WIRE -208 464 -256 464
WIRE 224 464 224 304
WIRE 224 464 -144 464
WIRE -1104 512 -1104 416
WIRE -592 528 -592 272
FLAG 544 384 0
FLAG 512 -176 VDD
FLAG -1104 512 0
FLAG -592 528 0
FLAG -1104 256 VDD
FLAG 1360 112 Vout
FLAG -128 160 VDD
SYMBOL voltage -592 176 R0
WINDOW 3 -57 132 Left 2
WINDOW 123 0 0 Left 2
WINDOW 39 0 0 Left 2
SYMATTR Value PULSE(0 1.8 50p 1p 1p 100p 200p)
SYMATTR InstName V1
SYMBOL voltage -1104 320 R0
WINDOW 123 0 0 Left 2
WINDOW 39 0 0 Left 2
SYMATTR InstName V2
SYMATTR Value 1.8
SYMBOL trasgate 208 128 R0
SYMATTR InstName X1
SYMBOL Digital\\inv -208 400 R0
SYMATTR InstName A1
TEXT -1240 -456 Left 2 !.tran 0 250p 0 .1p
